* NGSPICE file created from DMC_32x16HC.ext - technology: sky130A

* Black-box entry subcircuit for sky130_fd_sc_hd__ebufn_2 abstract view
.subckt sky130_fd_sc_hd__ebufn_2 A TE_B VGND VNB VPB VPWR Z
.ends

* Black-box entry subcircuit for sky130_fd_sc_hd__diode_2 abstract view
.subckt sky130_fd_sc_hd__diode_2 DIODE VGND VNB VPB VPWR
.ends

* Black-box entry subcircuit for sky130_fd_sc_hd__fill_1 abstract view
.subckt sky130_fd_sc_hd__fill_1 VGND VNB VPB VPWR
.ends

* Black-box entry subcircuit for sky130_fd_sc_hd__decap_3 abstract view
.subckt sky130_fd_sc_hd__decap_3 VGND VNB VPB VPWR
.ends

* Black-box entry subcircuit for sky130_fd_sc_hd__dfxtp_1 abstract view
.subckt sky130_fd_sc_hd__dfxtp_1 CLK D VGND VNB VPB VPWR Q
.ends

* Black-box entry subcircuit for sky130_fd_sc_hd__tapvpwrvgnd_1 abstract view
.subckt sky130_fd_sc_hd__tapvpwrvgnd_1 VGND VPWR
.ends

* Black-box entry subcircuit for sky130_fd_sc_hd__decap_12 abstract view
.subckt sky130_fd_sc_hd__decap_12 VGND VNB VPB VPWR
.ends

* Black-box entry subcircuit for sky130_fd_sc_hd__decap_4 abstract view
.subckt sky130_fd_sc_hd__decap_4 VGND VNB VPB VPWR
.ends

* Black-box entry subcircuit for sky130_fd_sc_hd__decap_8 abstract view
.subckt sky130_fd_sc_hd__decap_8 VGND VNB VPB VPWR
.ends

* Black-box entry subcircuit for sky130_fd_sc_hd__decap_6 abstract view
.subckt sky130_fd_sc_hd__decap_6 VGND VNB VPB VPWR
.ends

* Black-box entry subcircuit for sky130_fd_sc_hd__and2_1 abstract view
.subckt sky130_fd_sc_hd__and2_1 A B VGND VNB VPB VPWR X
.ends

* Black-box entry subcircuit for sky130_fd_sc_hd__inv_2 abstract view
.subckt sky130_fd_sc_hd__inv_2 A VGND VNB VPB VPWR Y
.ends

* Black-box entry subcircuit for sky130_fd_sc_hd__fill_2 abstract view
.subckt sky130_fd_sc_hd__fill_2 VGND VNB VPB VPWR
.ends

* Black-box entry subcircuit for sky130_fd_sc_hd__dlclkp_1 abstract view
.subckt sky130_fd_sc_hd__dlclkp_1 CLK GATE VGND VNB VPB VPWR GCLK
.ends

* Black-box entry subcircuit for sky130_fd_sc_hd__and2_4 abstract view
.subckt sky130_fd_sc_hd__and2_4 A B VGND VNB VPB VPWR X
.ends

* Black-box entry subcircuit for sky130_fd_sc_hd__and4b_4 abstract view
.subckt sky130_fd_sc_hd__and4b_4 A_N B C D VGND VNB VPB VPWR X
.ends

* Black-box entry subcircuit for sky130_fd_sc_hd__nor4b_4 abstract view
.subckt sky130_fd_sc_hd__nor4b_4 A B C D_N VGND VNB VPB VPWR Y
.ends

* Black-box entry subcircuit for sky130_fd_sc_hd__clkbuf_2 abstract view
.subckt sky130_fd_sc_hd__clkbuf_2 A VGND VNB VPB VPWR X
.ends

* Black-box entry subcircuit for sky130_fd_sc_hd__dfrtp_1 abstract view
.subckt sky130_fd_sc_hd__dfrtp_1 CLK D RESET_B VGND VNB VPB VPWR Q
.ends

* Black-box entry subcircuit for sky130_fd_sc_hd__clkbuf_4 abstract view
.subckt sky130_fd_sc_hd__clkbuf_4 A VGND VNB VPB VPWR X
.ends

* Black-box entry subcircuit for sky130_fd_sc_hd__mux4_1 abstract view
.subckt sky130_fd_sc_hd__mux4_1 A0 A1 A2 A3 S0 S1 VGND VNB VPB VPWR X
.ends

* Black-box entry subcircuit for sky130_fd_sc_hd__and4bb_4 abstract view
.subckt sky130_fd_sc_hd__and4bb_4 A_N B_N C D VGND VNB VPB VPWR X
.ends

* Black-box entry subcircuit for sky130_fd_sc_hd__a2bb2oi_2 abstract view
.subckt sky130_fd_sc_hd__a2bb2oi_2 A1_N A2_N B1 B2 VGND VNB VPB VPWR Y
.ends

* Black-box entry subcircuit for sky130_fd_sc_hd__or4_2 abstract view
.subckt sky130_fd_sc_hd__or4_2 A B C D VGND VNB VPB VPWR X
.ends

* Black-box entry subcircuit for sky130_fd_sc_hd__and4_4 abstract view
.subckt sky130_fd_sc_hd__and4_4 A B C D VGND VNB VPB VPWR X
.ends

* Black-box entry subcircuit for sky130_fd_sc_hd__conb_1 abstract view
.subckt sky130_fd_sc_hd__conb_1 VGND VNB VPB VPWR HI LO
.ends

* Black-box entry subcircuit for sky130_fd_sc_hd__o2111ai_2 abstract view
.subckt sky130_fd_sc_hd__o2111ai_2 A1 A2 B1 C1 D1 VGND VNB VPB VPWR Y
.ends

* Black-box entry subcircuit for sky130_fd_sc_hd__o22a_2 abstract view
.subckt sky130_fd_sc_hd__o22a_2 A1 A2 B1 B2 VGND VNB VPB VPWR X
.ends

* Black-box entry subcircuit for sky130_fd_sc_hd__a22oi_2 abstract view
.subckt sky130_fd_sc_hd__a22oi_2 A1 A2 B1 B2 VGND VNB VPB VPWR Y
.ends

* Black-box entry subcircuit for sky130_fd_sc_hd__a2bb2o_2 abstract view
.subckt sky130_fd_sc_hd__a2bb2o_2 A1_N A2_N B1 B2 VGND VNB VPB VPWR X
.ends

* Black-box entry subcircuit for sky130_fd_sc_hd__nor2_2 abstract view
.subckt sky130_fd_sc_hd__nor2_2 A B VGND VNB VPB VPWR Y
.ends

* Black-box entry subcircuit for sky130_fd_sc_hd__and2b_2 abstract view
.subckt sky130_fd_sc_hd__and2b_2 A_N B VGND VNB VPB VPWR X
.ends

* Black-box entry subcircuit for sky130_fd_sc_hd__nor4_2 abstract view
.subckt sky130_fd_sc_hd__nor4_2 A B C D VGND VNB VPB VPWR Y
.ends

* Black-box entry subcircuit for sky130_fd_sc_hd__and2_2 abstract view
.subckt sky130_fd_sc_hd__and2_2 A B VGND VNB VPB VPWR X
.ends

* Black-box entry subcircuit for sky130_fd_sc_hd__a22o_2 abstract view
.subckt sky130_fd_sc_hd__a22o_2 A1 A2 B1 B2 VGND VNB VPB VPWR X
.ends

* Black-box entry subcircuit for sky130_fd_sc_hd__o21ai_2 abstract view
.subckt sky130_fd_sc_hd__o21ai_2 A1 A2 B1 VGND VNB VPB VPWR Y
.ends

.subckt DMC_32x16HC A[0] A[10] A[11] A[12] A[13] A[14] A[15] A[16] A[17] A[18] A[19]
+ A[1] A[20] A[21] A[2] A[3] A[4] A[5] A[6] A[7] A[8] A[9] A_h[0] A_h[10] A_h[11]
+ A_h[12] A_h[13] A_h[14] A_h[15] A_h[16] A_h[17] A_h[18] A_h[19] A_h[1] A_h[2] A_h[3]
+ A_h[4] A_h[5] A_h[6] A_h[7] A_h[8] A_h[9] Do[0] Do[10] Do[11] Do[12] Do[13] Do[14]
+ Do[15] Do[16] Do[17] Do[18] Do[19] Do[1] Do[20] Do[21] Do[22] Do[23] Do[24] Do[25]
+ Do[26] Do[27] Do[28] Do[29] Do[2] Do[30] Do[31] Do[3] Do[4] Do[5] Do[6] Do[7] Do[8]
+ Do[9] clk hit line[0] line[100] line[101] line[102] line[103] line[104] line[105]
+ line[106] line[107] line[108] line[109] line[10] line[110] line[111] line[112] line[113]
+ line[114] line[115] line[116] line[117] line[118] line[119] line[11] line[120] line[121]
+ line[122] line[123] line[124] line[125] line[126] line[127] line[12] line[13] line[14]
+ line[15] line[16] line[17] line[18] line[19] line[1] line[20] line[21] line[22]
+ line[23] line[24] line[25] line[26] line[27] line[28] line[29] line[2] line[30]
+ line[31] line[32] line[33] line[34] line[35] line[36] line[37] line[38] line[39]
+ line[3] line[40] line[41] line[42] line[43] line[44] line[45] line[46] line[47]
+ line[48] line[49] line[4] line[50] line[51] line[52] line[53] line[54] line[55]
+ line[56] line[57] line[58] line[59] line[5] line[60] line[61] line[62] line[63]
+ line[64] line[65] line[66] line[67] line[68] line[69] line[6] line[70] line[71]
+ line[72] line[73] line[74] line[75] line[76] line[77] line[78] line[79] line[7]
+ line[80] line[81] line[82] line[83] line[84] line[85] line[86] line[87] line[88]
+ line[89] line[8] line[90] line[91] line[92] line[93] line[94] line[95] line[96]
+ line[97] line[98] line[99] line[9] rst_n wr vccd1 vssd1
XOVHB\[16\].VALID\[10\].TOBUF OVHB\[16\].VALID\[10\].FF/Q OVHB\[16\].INV/Y vssd1 vssd1
+ vccd1 vccd1 _04932_/B2 sky130_fd_sc_hd__ebufn_2
XANTENNA__09515__D line[41] vssd1 vssd1 vccd1 vccd1 sky130_fd_sc_hd__diode_2
XFILLER_39_233 vssd1 vssd1 vccd1 vccd1 sky130_fd_sc_hd__fill_1
X_05903_ _05903_/A _05914_/Y vssd1 vssd1 vccd1 vccd1 _13743_/Z sky130_fd_sc_hd__ebufn_2
X_09671_ _09671_/A _09694_/Y vssd1 vssd1 vccd1 vccd1 _13871_/Z sky130_fd_sc_hd__ebufn_2
X_06883_ _06883_/A _06894_/Y vssd1 vssd1 vccd1 vccd1 _13883_/Z sky130_fd_sc_hd__ebufn_2
XFILLER_94_361 vssd1 vssd1 vccd1 vccd1 sky130_fd_sc_hd__fill_1
XFILLER_27_428 vssd1 vssd1 vccd1 vccd1 sky130_fd_sc_hd__decap_3
X_08622_ _08640_/CLK line[31] vssd1 vssd1 vccd1 vccd1 _08623_/A sky130_fd_sc_hd__dfxtp_1
X_05834_ _05840_/CLK line[22] vssd1 vssd1 vccd1 vccd1 _05835_/A sky130_fd_sc_hd__dfxtp_1
XANTENNA_MUX.M\[1\].MUX\[1\]_A1 _13716_/Z vssd1 vssd1 vccd1 vccd1 sky130_fd_sc_hd__diode_2
XANTENNA__07035__D line[64] vssd1 vssd1 vccd1 vccd1 sky130_fd_sc_hd__diode_2
XPHY_3109 vssd1 vccd1 sky130_fd_sc_hd__tapvpwrvgnd_1
X_08553_ _08553_/A _08574_/Y vssd1 vssd1 vccd1 vccd1 _13873_/Z sky130_fd_sc_hd__ebufn_2
X_05765_ _05765_/A _05774_/Y vssd1 vssd1 vccd1 vccd1 _13885_/Z sky130_fd_sc_hd__ebufn_2
XANTENNA__11780__D line[52] vssd1 vssd1 vccd1 vccd1 sky130_fd_sc_hd__diode_2
XANTENNA__06874__D line[113] vssd1 vssd1 vccd1 vccd1 sky130_fd_sc_hd__diode_2
X_07504_ _07520_/CLK line[17] vssd1 vssd1 vccd1 vccd1 _07505_/A sky130_fd_sc_hd__dfxtp_1
X_08484_ _08500_/CLK line[81] vssd1 vssd1 vccd1 vccd1 _08485_/A sky130_fd_sc_hd__dfxtp_1
XPHY_2408 vssd1 vccd1 sky130_fd_sc_hd__tapvpwrvgnd_1
XFILLER_22_111 vssd1 vssd1 vccd1 vccd1 sky130_fd_sc_hd__decap_12
X_05696_ _05700_/CLK line[87] vssd1 vssd1 vccd1 vccd1 _05697_/A sky130_fd_sc_hd__dfxtp_1
XPHY_2419 vssd1 vccd1 sky130_fd_sc_hd__tapvpwrvgnd_1
XANTENNA__06229__A _13903_/X vssd1 vssd1 vccd1 vccd1 sky130_fd_sc_hd__diode_2
XANTENNA__09250__D line[62] vssd1 vssd1 vccd1 vccd1 sky130_fd_sc_hd__diode_2
XFILLER_211_724 vssd1 vssd1 vccd1 vccd1 sky130_fd_sc_hd__fill_1
XPHY_1707 vssd1 vccd1 sky130_fd_sc_hd__tapvpwrvgnd_1
X_07435_ _07435_/A _07454_/Y vssd1 vssd1 vccd1 vccd1 _13875_/Z sky130_fd_sc_hd__ebufn_2
XFILLER_22_144 vssd1 vssd1 vccd1 vccd1 sky130_fd_sc_hd__decap_12
XPHY_1718 vssd1 vccd1 sky130_fd_sc_hd__tapvpwrvgnd_1
XPHY_1729 vssd1 vccd1 sky130_fd_sc_hd__tapvpwrvgnd_1
XFILLER_167_127 vssd1 vssd1 vccd1 vccd1 sky130_fd_sc_hd__fill_1
X_07366_ _07380_/CLK line[82] vssd1 vssd1 vccd1 vccd1 _07367_/A sky130_fd_sc_hd__dfxtp_1
XANTENNA_OVHB\[9\].VALID\[9\].FF_D A[16] vssd1 vssd1 vccd1 vccd1 sky130_fd_sc_hd__diode_2
X_06317_ _06317_/A _06334_/Y vssd1 vssd1 vccd1 vccd1 _13877_/Z sky130_fd_sc_hd__ebufn_2
X_09105_ _09105_/A _09134_/Y vssd1 vssd1 vccd1 vccd1 _13865_/Z sky130_fd_sc_hd__ebufn_2
XFILLER_148_374 vssd1 vssd1 vccd1 vccd1 sky130_fd_sc_hd__fill_1
X_07297_ _07297_/A _07314_/Y vssd1 vssd1 vccd1 vccd1 _13737_/Z sky130_fd_sc_hd__ebufn_2
XFILLER_136_547 vssd1 vssd1 vccd1 vccd1 sky130_fd_sc_hd__fill_1
XFILLER_191_642 vssd1 vssd1 vccd1 vccd1 sky130_fd_sc_hd__decap_4
X_09036_ _09060_/CLK line[92] vssd1 vssd1 vccd1 vccd1 _09037_/A sky130_fd_sc_hd__dfxtp_1
XFILLER_108_249 vssd1 vssd1 vccd1 vccd1 sky130_fd_sc_hd__decap_8
X_06248_ _06260_/CLK line[83] vssd1 vssd1 vccd1 vccd1 _06249_/A sky130_fd_sc_hd__dfxtp_1
XFILLER_184_39 vssd1 vssd1 vccd1 vccd1 sky130_fd_sc_hd__decap_3
XFILLER_151_506 vssd1 vssd1 vccd1 vccd1 sky130_fd_sc_hd__decap_6
XANTENNA__12116__D line[92] vssd1 vssd1 vccd1 vccd1 sky130_fd_sc_hd__diode_2
X_06179_ _06179_/A _06194_/Y vssd1 vssd1 vccd1 vccd1 _13739_/Z sky130_fd_sc_hd__ebufn_2
XANTENNA_DATA\[27\].CLKBUF\[2\]_A clk vssd1 vssd1 vccd1 vccd1 sky130_fd_sc_hd__diode_2
XANTENNA__11020__D line[89] vssd1 vssd1 vccd1 vccd1 sky130_fd_sc_hd__diode_2
XFILLER_132_742 vssd1 vssd1 vccd1 vccd1 sky130_fd_sc_hd__fill_1
XANTENNA__06114__D line[22] vssd1 vssd1 vccd1 vccd1 sky130_fd_sc_hd__diode_2
XFILLER_77_15 vssd1 vssd1 vccd1 vccd1 sky130_fd_sc_hd__decap_12
XANTENNA__11955__D line[4] vssd1 vssd1 vccd1 vccd1 sky130_fd_sc_hd__diode_2
XFILLER_131_252 vssd1 vssd1 vccd1 vccd1 sky130_fd_sc_hd__fill_1
XANTENNA__04929__A1_N A_h[17] vssd1 vssd1 vccd1 vccd1 sky130_fd_sc_hd__diode_2
XFILLER_132_797 vssd1 vssd1 vccd1 vccd1 sky130_fd_sc_hd__decap_6
X_09938_ _13921_/X wr vssd1 vssd1 vccd1 vccd1 _09938_/X sky130_fd_sc_hd__and2_1
XFILLER_77_339 vssd1 vssd1 vccd1 vccd1 sky130_fd_sc_hd__decap_3
XANTENNA__09425__D line[14] vssd1 vssd1 vccd1 vccd1 sky130_fd_sc_hd__diode_2
X_09869_ _13921_/X vssd1 vssd1 vccd1 vccd1 _09869_/Y sky130_fd_sc_hd__inv_2
X_11900_ _11930_/CLK line[112] vssd1 vssd1 vccd1 vccd1 _11901_/A sky130_fd_sc_hd__dfxtp_1
XFILLER_45_203 vssd1 vssd1 vccd1 vccd1 sky130_fd_sc_hd__fill_1
XFILLER_73_512 vssd1 vssd1 vccd1 vccd1 sky130_fd_sc_hd__fill_1
XFILLER_133_87 vssd1 vssd1 vccd1 vccd1 sky130_fd_sc_hd__decap_8
X_12880_ _12910_/CLK line[48] vssd1 vssd1 vccd1 vccd1 _12881_/A sky130_fd_sc_hd__dfxtp_1
XFILLER_172_3 vssd1 vssd1 vccd1 vccd1 sky130_fd_sc_hd__fill_2
XFILLER_93_58 vssd1 vssd1 vccd1 vccd1 sky130_fd_sc_hd__decap_6
XFILLER_26_30 vssd1 vssd1 vccd1 vccd1 sky130_fd_sc_hd__decap_12
XANTENNA__07523__A _13911_/X vssd1 vssd1 vccd1 vccd1 sky130_fd_sc_hd__diode_2
X_11831_ _11831_/A _11864_/Y vssd1 vssd1 vccd1 vccd1 _13791_/Z sky130_fd_sc_hd__ebufn_2
XFILLER_45_258 vssd1 vssd1 vccd1 vccd1 sky130_fd_sc_hd__decap_6
XANTENNA__11690__D line[16] vssd1 vssd1 vccd1 vccd1 sky130_fd_sc_hd__diode_2
XFILLER_26_483 vssd1 vssd1 vccd1 vccd1 sky130_fd_sc_hd__fill_2
X_11762_ _11790_/CLK line[58] vssd1 vssd1 vccd1 vccd1 _11763_/A sky130_fd_sc_hd__dfxtp_1
XPHY_2920 vssd1 vccd1 sky130_fd_sc_hd__tapvpwrvgnd_1
X_13501_ _13505_/CLK line[71] vssd1 vssd1 vccd1 vccd1 _13502_/A sky130_fd_sc_hd__dfxtp_1
XPHY_2931 vssd1 vccd1 sky130_fd_sc_hd__tapvpwrvgnd_1
X_10713_ _10713_/A _10744_/Y vssd1 vssd1 vccd1 vccd1 _13793_/Z sky130_fd_sc_hd__ebufn_2
XFILLER_159_628 vssd1 vssd1 vccd1 vccd1 sky130_fd_sc_hd__decap_6
XPHY_2942 vssd1 vccd1 sky130_fd_sc_hd__tapvpwrvgnd_1
XANTENNA_OVHB\[9\].VALID\[11\].FF_D A[18] vssd1 vssd1 vccd1 vccd1 sky130_fd_sc_hd__diode_2
XANTENNA__10884__A _13925_/X vssd1 vssd1 vccd1 vccd1 sky130_fd_sc_hd__diode_2
X_11693_ _11693_/A _11724_/Y vssd1 vssd1 vccd1 vccd1 _13653_/Z sky130_fd_sc_hd__ebufn_2
XPHY_2953 vssd1 vccd1 sky130_fd_sc_hd__tapvpwrvgnd_1
XFILLER_9_115 vssd1 vssd1 vccd1 vccd1 sky130_fd_sc_hd__decap_12
XPHY_2964 vssd1 vccd1 sky130_fd_sc_hd__tapvpwrvgnd_1
XPHY_2975 vssd1 vccd1 sky130_fd_sc_hd__tapvpwrvgnd_1
X_13432_ _13432_/A _13439_/Y vssd1 vssd1 vccd1 vccd1 _13712_/Z sky130_fd_sc_hd__ebufn_2
XPHY_2986 vssd1 vccd1 sky130_fd_sc_hd__tapvpwrvgnd_1
X_10644_ _10670_/CLK line[59] vssd1 vssd1 vccd1 vccd1 _10645_/A sky130_fd_sc_hd__dfxtp_1
XPHY_2997 vssd1 vccd1 sky130_fd_sc_hd__tapvpwrvgnd_1
XFILLER_155_801 vssd1 vssd1 vccd1 vccd1 sky130_fd_sc_hd__fill_1
XFILLER_167_683 vssd1 vssd1 vccd1 vccd1 sky130_fd_sc_hd__fill_1
X_13363_ _13365_/CLK line[8] vssd1 vssd1 vccd1 vccd1 _13364_/A sky130_fd_sc_hd__dfxtp_1
X_10575_ _10575_/A _10604_/Y vssd1 vssd1 vccd1 vccd1 _13655_/Z sky130_fd_sc_hd__ebufn_2
XFILLER_154_322 vssd1 vssd1 vccd1 vccd1 sky130_fd_sc_hd__fill_1
X_12314_ _12314_/A _12319_/Y vssd1 vssd1 vccd1 vccd1 _13714_/Z sky130_fd_sc_hd__ebufn_2
XFILLER_127_569 vssd1 vssd1 vccd1 vccd1 sky130_fd_sc_hd__fill_1
X_13294_ _13294_/A _13299_/Y vssd1 vssd1 vccd1 vccd1 _13854_/Z sky130_fd_sc_hd__ebufn_2
X_12245_ _12245_/CLK line[9] vssd1 vssd1 vccd1 vccd1 _12246_/A sky130_fd_sc_hd__dfxtp_1
XANTENNA__06024__D line[123] vssd1 vssd1 vccd1 vccd1 sky130_fd_sc_hd__diode_2
X_12176_ _12176_/A _12179_/Y vssd1 vssd1 vccd1 vccd1 _13856_/Z sky130_fd_sc_hd__ebufn_2
XFILLER_96_604 vssd1 vssd1 vccd1 vccd1 sky130_fd_sc_hd__fill_1
XANTENNA__11865__D line[96] vssd1 vssd1 vccd1 vccd1 sky130_fd_sc_hd__diode_2
XFILLER_150_561 vssd1 vssd1 vccd1 vccd1 sky130_fd_sc_hd__decap_3
XANTENNA_DATA\[0\].CLKBUF\[1\]_A clk vssd1 vssd1 vccd1 vccd1 sky130_fd_sc_hd__diode_2
X_11127_ _11127_/CLK _11128_/X vssd1 vssd1 vccd1 vccd1 _11125_/CLK sky130_fd_sc_hd__dlclkp_1
XFILLER_49_520 vssd1 vssd1 vccd1 vccd1 sky130_fd_sc_hd__fill_1
XFILLER_110_425 vssd1 vssd1 vccd1 vccd1 sky130_fd_sc_hd__fill_1
XANTENNA__05863__D line[35] vssd1 vssd1 vccd1 vccd1 sky130_fd_sc_hd__diode_2
XFILLER_67_70 vssd1 vssd1 vccd1 vccd1 sky130_fd_sc_hd__decap_8
X_11058_ _13925_/X wr vssd1 vssd1 vccd1 vccd1 _11058_/X sky130_fd_sc_hd__and2_1
XFILLER_92_810 vssd1 vssd1 vccd1 vccd1 sky130_fd_sc_hd__fill_1
X_10009_ _13922_/X vssd1 vssd1 vccd1 vccd1 _10009_/Y sky130_fd_sc_hd__inv_2
XFILLER_76_372 vssd1 vssd1 vccd1 vccd1 sky130_fd_sc_hd__fill_1
XANTENNA__10778__B wr vssd1 vssd1 vccd1 vccd1 sky130_fd_sc_hd__diode_2
XFILLER_36_247 vssd1 vssd1 vccd1 vccd1 sky130_fd_sc_hd__fill_1
XANTENNA__12696__D line[87] vssd1 vssd1 vccd1 vccd1 sky130_fd_sc_hd__diode_2
XFILLER_36_258 vssd1 vssd1 vccd1 vccd1 sky130_fd_sc_hd__decap_4
XOVHB\[22\].CGAND _13915_/X wr vssd1 vssd1 vccd1 vccd1 OVHB\[22\].CGAND/X sky130_fd_sc_hd__and2_4
X_05550_ _05560_/CLK line[20] vssd1 vssd1 vccd1 vccd1 _05551_/A sky130_fd_sc_hd__dfxtp_1
X_05481_ _05481_/A _05494_/Y vssd1 vssd1 vccd1 vccd1 _13881_/Z sky130_fd_sc_hd__ebufn_2
XFILLER_60_773 vssd1 vssd1 vccd1 vccd1 sky130_fd_sc_hd__decap_3
XANTENNA__11105__D line[14] vssd1 vssd1 vccd1 vccd1 sky130_fd_sc_hd__diode_2
XFILLER_177_436 vssd1 vssd1 vccd1 vccd1 sky130_fd_sc_hd__fill_1
XFILLER_32_486 vssd1 vssd1 vccd1 vccd1 sky130_fd_sc_hd__decap_3
X_07220_ _07240_/CLK line[30] vssd1 vssd1 vccd1 vccd1 _07221_/A sky130_fd_sc_hd__dfxtp_1
XFILLER_20_659 vssd1 vssd1 vccd1 vccd1 sky130_fd_sc_hd__fill_2
XANTENNA__05103__D line[72] vssd1 vssd1 vccd1 vccd1 sky130_fd_sc_hd__diode_2
X_07151_ _07151_/A _07174_/Y vssd1 vssd1 vccd1 vccd1 _13871_/Z sky130_fd_sc_hd__ebufn_2
XANTENNA__10944__D line[54] vssd1 vssd1 vccd1 vccd1 sky130_fd_sc_hd__diode_2
XFILLER_158_694 vssd1 vssd1 vccd1 vccd1 sky130_fd_sc_hd__decap_8
XFILLER_145_322 vssd1 vssd1 vccd1 vccd1 sky130_fd_sc_hd__decap_8
XANTENNA__13320__D line[116] vssd1 vssd1 vccd1 vccd1 sky130_fd_sc_hd__diode_2
X_06102_ _06120_/CLK line[31] vssd1 vssd1 vccd1 vccd1 _06103_/A sky130_fd_sc_hd__dfxtp_1
X_07082_ _07100_/CLK line[95] vssd1 vssd1 vccd1 vccd1 _07083_/A sky130_fd_sc_hd__dfxtp_1
XANTENNA__08414__D line[49] vssd1 vssd1 vccd1 vccd1 sky130_fd_sc_hd__diode_2
XFILLER_161_815 vssd1 vssd1 vccd1 vccd1 sky130_fd_sc_hd__fill_1
X_06033_ _06033_/A _06054_/Y vssd1 vssd1 vccd1 vccd1 _13873_/Z sky130_fd_sc_hd__ebufn_2
XOVHB\[18\].VALID\[4\].TOBUF OVHB\[18\].VALID\[4\].FF/Q OVHB\[18\].INV/Y vssd1 vssd1
+ vccd1 vccd1 _04925_/B2 sky130_fd_sc_hd__ebufn_2
XFILLER_114_764 vssd1 vssd1 vccd1 vccd1 sky130_fd_sc_hd__fill_1
XFILLER_87_637 vssd1 vssd1 vccd1 vccd1 sky130_fd_sc_hd__decap_8
X_07984_ _08010_/CLK line[123] vssd1 vssd1 vccd1 vccd1 _07985_/A sky130_fd_sc_hd__dfxtp_1
X_09723_ _09725_/CLK line[8] vssd1 vssd1 vccd1 vccd1 _09724_/A sky130_fd_sc_hd__dfxtp_1
X_06935_ _06935_/A _06964_/Y vssd1 vssd1 vccd1 vccd1 _13655_/Z sky130_fd_sc_hd__ebufn_2
XFILLER_95_670 vssd1 vssd1 vccd1 vccd1 sky130_fd_sc_hd__decap_4
X_09654_ _09654_/A _09659_/Y vssd1 vssd1 vccd1 vccd1 _13854_/Z sky130_fd_sc_hd__ebufn_2
X_06866_ _06890_/CLK line[124] vssd1 vssd1 vccd1 vccd1 _06867_/A sky130_fd_sc_hd__dfxtp_1
XFILLER_55_545 vssd1 vssd1 vccd1 vccd1 sky130_fd_sc_hd__fill_1
X_08605_ _08605_/CLK line[9] vssd1 vssd1 vccd1 vccd1 _08606_/A sky130_fd_sc_hd__dfxtp_1
X_05817_ _05817_/A _05844_/Y vssd1 vssd1 vccd1 vccd1 _13657_/Z sky130_fd_sc_hd__ebufn_2
X_09585_ _09585_/CLK line[73] vssd1 vssd1 vccd1 vccd1 _09586_/A sky130_fd_sc_hd__dfxtp_1
X_06797_ _06797_/A _06824_/Y vssd1 vssd1 vccd1 vccd1 _13797_/Z sky130_fd_sc_hd__ebufn_2
XFILLER_63_39 vssd1 vssd1 vccd1 vccd1 sky130_fd_sc_hd__decap_12
X_08536_ _08536_/A _08539_/Y vssd1 vssd1 vccd1 vccd1 _13856_/Z sky130_fd_sc_hd__ebufn_2
X_05748_ _05770_/CLK line[125] vssd1 vssd1 vccd1 vccd1 _05749_/A sky130_fd_sc_hd__dfxtp_1
XPHY_905 vssd1 vccd1 sky130_fd_sc_hd__tapvpwrvgnd_1
XPHY_2205 vssd1 vccd1 sky130_fd_sc_hd__tapvpwrvgnd_1
XPHY_916 vssd1 vccd1 sky130_fd_sc_hd__tapvpwrvgnd_1
XFILLER_51_740 vssd1 vssd1 vccd1 vccd1 sky130_fd_sc_hd__fill_1
XPHY_2216 vssd1 vccd1 sky130_fd_sc_hd__tapvpwrvgnd_1
XFILLER_179_39 vssd1 vssd1 vccd1 vccd1 sky130_fd_sc_hd__decap_12
XPHY_927 vssd1 vccd1 sky130_fd_sc_hd__tapvpwrvgnd_1
XPHY_938 vssd1 vccd1 sky130_fd_sc_hd__tapvpwrvgnd_1
XPHY_2227 vssd1 vccd1 sky130_fd_sc_hd__tapvpwrvgnd_1
XPHY_949 vssd1 vccd1 sky130_fd_sc_hd__tapvpwrvgnd_1
XPHY_2238 vssd1 vccd1 sky130_fd_sc_hd__tapvpwrvgnd_1
X_08467_ _08467_/CLK _08468_/X vssd1 vssd1 vccd1 vccd1 _08465_/CLK sky130_fd_sc_hd__dlclkp_1
XPHY_1504 vssd1 vccd1 sky130_fd_sc_hd__tapvpwrvgnd_1
XPHY_2249 vssd1 vccd1 sky130_fd_sc_hd__tapvpwrvgnd_1
X_05679_ _05679_/A _05704_/Y vssd1 vssd1 vccd1 vccd1 _13799_/Z sky130_fd_sc_hd__ebufn_2
XFILLER_23_475 vssd1 vssd1 vccd1 vccd1 sky130_fd_sc_hd__fill_2
XPHY_1515 vssd1 vccd1 sky130_fd_sc_hd__tapvpwrvgnd_1
XFILLER_11_626 vssd1 vssd1 vccd1 vccd1 sky130_fd_sc_hd__fill_1
XPHY_1526 vssd1 vccd1 sky130_fd_sc_hd__tapvpwrvgnd_1
XPHY_1537 vssd1 vccd1 sky130_fd_sc_hd__tapvpwrvgnd_1
XFILLER_211_576 vssd1 vssd1 vccd1 vccd1 sky130_fd_sc_hd__decap_4
X_07418_ _13910_/X wr vssd1 vssd1 vccd1 vccd1 _07418_/X sky130_fd_sc_hd__and2_1
X_08398_ _13913_/X wr vssd1 vssd1 vccd1 vccd1 _08398_/X sky130_fd_sc_hd__and2_1
XPHY_1548 vssd1 vccd1 sky130_fd_sc_hd__tapvpwrvgnd_1
XANTENNA__05013__D line[45] vssd1 vssd1 vccd1 vccd1 sky130_fd_sc_hd__diode_2
XPHY_1559 vssd1 vccd1 sky130_fd_sc_hd__tapvpwrvgnd_1
XANTENNA__10854__D line[27] vssd1 vssd1 vccd1 vccd1 sky130_fd_sc_hd__diode_2
X_07349_ _13910_/X vssd1 vssd1 vccd1 vccd1 _07349_/Y sky130_fd_sc_hd__inv_2
XFILLER_109_514 vssd1 vssd1 vccd1 vccd1 sky130_fd_sc_hd__fill_2
XFILLER_149_683 vssd1 vssd1 vccd1 vccd1 sky130_fd_sc_hd__fill_1
XOVHB\[9\].VALID\[9\].FF OVHB\[9\].V/CLK A[16] vssd1 vssd1 vccd1 vccd1 OVHB\[9\].VALID\[9\].FF/Q
+ sky130_fd_sc_hd__dfxtp_1
XANTENNA__13230__D line[80] vssd1 vssd1 vccd1 vccd1 sky130_fd_sc_hd__diode_2
XFILLER_12_54 vssd1 vssd1 vccd1 vccd1 sky130_fd_sc_hd__decap_12
X_10360_ _10390_/CLK line[48] vssd1 vssd1 vccd1 vccd1 _10361_/A sky130_fd_sc_hd__dfxtp_1
XFILLER_109_569 vssd1 vssd1 vccd1 vccd1 sky130_fd_sc_hd__fill_1
XFILLER_136_355 vssd1 vssd1 vccd1 vccd1 sky130_fd_sc_hd__decap_12
XFILLER_12_87 vssd1 vssd1 vccd1 vccd1 sky130_fd_sc_hd__decap_12
X_09019_ _09025_/CLK line[70] vssd1 vssd1 vccd1 vccd1 _09020_/A sky130_fd_sc_hd__dfxtp_1
X_10291_ _10291_/A _10324_/Y vssd1 vssd1 vccd1 vccd1 _13651_/Z sky130_fd_sc_hd__ebufn_2
XFILLER_124_539 vssd1 vssd1 vccd1 vccd1 sky130_fd_sc_hd__fill_1
XFILLER_2_313 vssd1 vssd1 vccd1 vccd1 sky130_fd_sc_hd__fill_1
XANTENNA__12424__A _13935_/X vssd1 vssd1 vccd1 vccd1 sky130_fd_sc_hd__diode_2
XFILLER_2_324 vssd1 vssd1 vccd1 vccd1 sky130_fd_sc_hd__fill_1
XFILLER_163_196 vssd1 vssd1 vccd1 vccd1 sky130_fd_sc_hd__fill_1
X_12030_ _12030_/A _12039_/Y vssd1 vssd1 vccd1 vccd1 _13710_/Z sky130_fd_sc_hd__ebufn_2
XANTENNA__12143__B wr vssd1 vssd1 vccd1 vccd1 sky130_fd_sc_hd__diode_2
XANTENNA__11685__D line[9] vssd1 vssd1 vccd1 vccd1 sky130_fd_sc_hd__diode_2
XFILLER_132_561 vssd1 vssd1 vccd1 vccd1 sky130_fd_sc_hd__fill_2
XFILLER_120_712 vssd1 vssd1 vccd1 vccd1 sky130_fd_sc_hd__fill_1
XFILLER_78_637 vssd1 vssd1 vccd1 vccd1 sky130_fd_sc_hd__decap_12
XFILLER_105_797 vssd1 vssd1 vccd1 vccd1 sky130_fd_sc_hd__fill_1
XANTENNA__06779__D line[70] vssd1 vssd1 vccd1 vccd1 sky130_fd_sc_hd__diode_2
XANTENNA__09155__D line[4] vssd1 vssd1 vccd1 vccd1 sky130_fd_sc_hd__diode_2
XANTENNA__05038__A _13931_/Y vssd1 vssd1 vccd1 vccd1 sky130_fd_sc_hd__diode_2
X_13981_ _13982_/A _13982_/B _13982_/C _13982_/D vssd1 vssd1 vccd1 vccd1 _13981_/X
+ sky130_fd_sc_hd__and4b_4
XANTENNA_DATA\[25\].CLKBUF\[4\]_A clk vssd1 vssd1 vccd1 vccd1 sky130_fd_sc_hd__diode_2
XFILLER_18_203 vssd1 vssd1 vccd1 vccd1 sky130_fd_sc_hd__decap_4
X_12932_ _12932_/A _12949_/Y vssd1 vssd1 vccd1 vccd1 _13772_/Z sky130_fd_sc_hd__ebufn_2
XFILLER_37_51 vssd1 vssd1 vccd1 vccd1 sky130_fd_sc_hd__decap_6
XOVHB\[24\].VALID\[3\].TOBUF OVHB\[24\].VALID\[3\].FF/Q OVHB\[24\].INV/Y vssd1 vssd1
+ vccd1 vccd1 _04919_/B2 sky130_fd_sc_hd__ebufn_2
X_12863_ _12875_/CLK line[35] vssd1 vssd1 vccd1 vccd1 _12864_/A sky130_fd_sc_hd__dfxtp_1
XANTENNA__13405__D line[32] vssd1 vssd1 vccd1 vccd1 sky130_fd_sc_hd__diode_2
XANTENNA_OVHB\[21\].VALID\[1\].FF_D A[8] vssd1 vssd1 vccd1 vccd1 sky130_fd_sc_hd__diode_2
X_11814_ _11814_/A _11829_/Y vssd1 vssd1 vccd1 vccd1 _13774_/Z sky130_fd_sc_hd__ebufn_2
XPHY_3440 vssd1 vccd1 sky130_fd_sc_hd__tapvpwrvgnd_1
X_12794_ _12794_/A _12809_/Y vssd1 vssd1 vccd1 vccd1 _13634_/Z sky130_fd_sc_hd__ebufn_2
XPHY_3451 vssd1 vccd1 sky130_fd_sc_hd__tapvpwrvgnd_1
XANTENNA__07403__D line[99] vssd1 vssd1 vccd1 vccd1 sky130_fd_sc_hd__diode_2
XPHY_3462 vssd1 vccd1 sky130_fd_sc_hd__tapvpwrvgnd_1
XFILLER_202_521 vssd1 vssd1 vccd1 vccd1 sky130_fd_sc_hd__decap_4
XPHY_3473 vssd1 vccd1 sky130_fd_sc_hd__tapvpwrvgnd_1
X_11745_ _11755_/CLK line[36] vssd1 vssd1 vccd1 vccd1 _11746_/A sky130_fd_sc_hd__dfxtp_1
XPHY_3484 vssd1 vccd1 sky130_fd_sc_hd__tapvpwrvgnd_1
XPHY_3495 vssd1 vccd1 sky130_fd_sc_hd__tapvpwrvgnd_1
XPHY_2750 vssd1 vccd1 sky130_fd_sc_hd__tapvpwrvgnd_1
XFILLER_14_486 vssd1 vssd1 vccd1 vccd1 sky130_fd_sc_hd__fill_2
XPHY_2761 vssd1 vccd1 sky130_fd_sc_hd__tapvpwrvgnd_1
XPHY_2772 vssd1 vccd1 sky130_fd_sc_hd__tapvpwrvgnd_1
XANTENNA__08084__A _13932_/X vssd1 vssd1 vccd1 vccd1 sky130_fd_sc_hd__diode_2
X_11676_ _11676_/A _11689_/Y vssd1 vssd1 vccd1 vccd1 _13636_/Z sky130_fd_sc_hd__ebufn_2
XPHY_2783 vssd1 vccd1 sky130_fd_sc_hd__tapvpwrvgnd_1
XPHY_2794 vssd1 vccd1 sky130_fd_sc_hd__tapvpwrvgnd_1
XANTENNA__12318__B wr vssd1 vssd1 vccd1 vccd1 sky130_fd_sc_hd__diode_2
X_13415_ _13435_/CLK line[46] vssd1 vssd1 vccd1 vccd1 _13416_/A sky130_fd_sc_hd__dfxtp_1
X_10627_ _10635_/CLK line[37] vssd1 vssd1 vccd1 vccd1 _10628_/A sky130_fd_sc_hd__dfxtp_1
XANTENNA_OVHB\[14\].VALID\[5\].FF_D A[12] vssd1 vssd1 vccd1 vccd1 sky130_fd_sc_hd__diode_2
X_13346_ _13346_/A _13369_/Y vssd1 vssd1 vccd1 vccd1 _13626_/Z sky130_fd_sc_hd__ebufn_2
X_10558_ _10558_/A _10569_/Y vssd1 vssd1 vccd1 vccd1 _13638_/Z sky130_fd_sc_hd__ebufn_2
XANTENNA_MUX.M\[3\].MUX\[2\]_A3 _13863_/Z vssd1 vssd1 vccd1 vccd1 sky130_fd_sc_hd__diode_2
XFILLER_154_152 vssd1 vssd1 vccd1 vccd1 sky130_fd_sc_hd__fill_1
X_13277_ _13295_/CLK line[111] vssd1 vssd1 vccd1 vccd1 _13278_/A sky130_fd_sc_hd__dfxtp_1
XFILLER_154_185 vssd1 vssd1 vccd1 vccd1 sky130_fd_sc_hd__decap_3
X_10489_ _10495_/CLK line[102] vssd1 vssd1 vccd1 vccd1 _10490_/A sky130_fd_sc_hd__dfxtp_1
X_12228_ _12228_/A _12249_/Y vssd1 vssd1 vccd1 vccd1 _13628_/Z sky130_fd_sc_hd__ebufn_2
XANTENNA__11595__D line[110] vssd1 vssd1 vccd1 vccd1 sky130_fd_sc_hd__diode_2
XANTENNA__06689__D line[43] vssd1 vssd1 vccd1 vccd1 sky130_fd_sc_hd__diode_2
X_12159_ _12175_/CLK line[97] vssd1 vssd1 vccd1 vccd1 _12160_/A sky130_fd_sc_hd__dfxtp_1
XANTENNA__05593__D line[40] vssd1 vssd1 vccd1 vccd1 sky130_fd_sc_hd__diode_2
XFILLER_69_659 vssd1 vssd1 vccd1 vccd1 sky130_fd_sc_hd__fill_1
XANTENNA__09065__D line[96] vssd1 vssd1 vccd1 vccd1 sky130_fd_sc_hd__diode_2
X_04981_ _04981_/A _05004_/Y vssd1 vssd1 vccd1 vccd1 _13661_/Z sky130_fd_sc_hd__ebufn_2
XFILLER_111_789 vssd1 vssd1 vccd1 vccd1 sky130_fd_sc_hd__decap_4
X_06720_ _06750_/CLK line[48] vssd1 vssd1 vccd1 vccd1 _06721_/A sky130_fd_sc_hd__dfxtp_1
XANTENNA__08259__A _13932_/X vssd1 vssd1 vccd1 vccd1 sky130_fd_sc_hd__diode_2
X_06651_ _06651_/A _06684_/Y vssd1 vssd1 vccd1 vccd1 _13651_/Z sky130_fd_sc_hd__ebufn_2
XFILLER_37_567 vssd1 vssd1 vccd1 vccd1 sky130_fd_sc_hd__decap_3
X_05602_ _05630_/CLK line[58] vssd1 vssd1 vccd1 vccd1 _05603_/A sky130_fd_sc_hd__dfxtp_1
XFILLER_91_172 vssd1 vssd1 vccd1 vccd1 sky130_fd_sc_hd__fill_1
X_09370_ _09370_/A _09379_/Y vssd1 vssd1 vccd1 vccd1 _13850_/Z sky130_fd_sc_hd__ebufn_2
XANTENNA__04937__D line[10] vssd1 vssd1 vccd1 vccd1 sky130_fd_sc_hd__diode_2
XFILLER_24_239 vssd1 vssd1 vccd1 vccd1 sky130_fd_sc_hd__decap_8
XFILLER_52_548 vssd1 vssd1 vccd1 vccd1 sky130_fd_sc_hd__fill_1
X_06582_ _06610_/CLK line[122] vssd1 vssd1 vccd1 vccd1 _06583_/A sky130_fd_sc_hd__dfxtp_1
XOVHB\[16\].VALID\[9\].TOBUF OVHB\[16\].VALID\[9\].FF/Q OVHB\[16\].INV/Y vssd1 vssd1
+ vccd1 vccd1 _04914_/B2 sky130_fd_sc_hd__ebufn_2
X_08321_ _08325_/CLK line[7] vssd1 vssd1 vccd1 vccd1 _08322_/A sky130_fd_sc_hd__dfxtp_1
X_05533_ _05533_/A _05564_/Y vssd1 vssd1 vccd1 vccd1 _13653_/Z sky130_fd_sc_hd__ebufn_2
XFILLER_177_211 vssd1 vssd1 vccd1 vccd1 sky130_fd_sc_hd__fill_1
X_08252_ _08252_/A _08259_/Y vssd1 vssd1 vccd1 vccd1 _13852_/Z sky130_fd_sc_hd__ebufn_2
X_05464_ _05490_/CLK line[123] vssd1 vssd1 vccd1 vccd1 _05465_/A sky130_fd_sc_hd__dfxtp_1
XOVHB\[30\].VALID\[2\].TOBUF OVHB\[30\].VALID\[2\].FF/Q OVHB\[30\].INV/Y vssd1 vssd1
+ vccd1 vccd1 _04930_/B2 sky130_fd_sc_hd__ebufn_2
X_07203_ _07205_/CLK line[8] vssd1 vssd1 vccd1 vccd1 _07204_/A sky130_fd_sc_hd__dfxtp_1
X_08183_ _08185_/CLK line[72] vssd1 vssd1 vccd1 vccd1 _08184_/A sky130_fd_sc_hd__dfxtp_1
XANTENNA_OVHB\[20\].V_D TIE/HI vssd1 vssd1 vccd1 vccd1 sky130_fd_sc_hd__diode_2
X_05395_ _05395_/A _05424_/Y vssd1 vssd1 vccd1 vccd1 _13795_/Z sky130_fd_sc_hd__ebufn_2
XANTENNA__13050__D line[121] vssd1 vssd1 vccd1 vccd1 sky130_fd_sc_hd__diode_2
XANTENNA__05768__D line[120] vssd1 vssd1 vccd1 vccd1 sky130_fd_sc_hd__diode_2
X_07134_ _07134_/A _07139_/Y vssd1 vssd1 vccd1 vccd1 _13854_/Z sky130_fd_sc_hd__ebufn_2
XANTENNA__08144__D line[54] vssd1 vssd1 vccd1 vccd1 sky130_fd_sc_hd__diode_2
XFILLER_145_141 vssd1 vssd1 vccd1 vccd1 sky130_fd_sc_hd__fill_1
XOVHB\[18\].VALID\[1\].FF OVHB\[18\].V/CLK A[8] vssd1 vssd1 vccd1 vccd1 OVHB\[18\].VALID\[1\].FF/Q
+ sky130_fd_sc_hd__dfxtp_1
X_07065_ _07065_/CLK line[73] vssd1 vssd1 vccd1 vccd1 _07066_/A sky130_fd_sc_hd__dfxtp_1
X_06016_ _06016_/A _06019_/Y vssd1 vssd1 vccd1 vccd1 _13856_/Z sky130_fd_sc_hd__ebufn_2
XANTENNA_OVHB\[12\].CGAND_B wr vssd1 vssd1 vccd1 vccd1 sky130_fd_sc_hd__diode_2
XFILLER_59_136 vssd1 vssd1 vccd1 vccd1 sky130_fd_sc_hd__decap_6
XANTENNA__09553__A _13920_/Y vssd1 vssd1 vccd1 vccd1 sky130_fd_sc_hd__diode_2
XFILLER_59_169 vssd1 vssd1 vccd1 vccd1 sky130_fd_sc_hd__fill_2
XFILLER_102_789 vssd1 vssd1 vccd1 vccd1 sky130_fd_sc_hd__fill_1
X_07967_ _07975_/CLK line[101] vssd1 vssd1 vccd1 vccd1 _07968_/A sky130_fd_sc_hd__dfxtp_1
XANTENNA_OVHB\[16\].CGAND_A _13909_/Y vssd1 vssd1 vccd1 vccd1 sky130_fd_sc_hd__diode_2
X_09706_ _09706_/A _09729_/Y vssd1 vssd1 vccd1 vccd1 _13626_/Z sky130_fd_sc_hd__ebufn_2
X_06918_ _06918_/A _06929_/Y vssd1 vssd1 vccd1 vccd1 _13638_/Z sky130_fd_sc_hd__ebufn_2
XFILLER_74_27 vssd1 vssd1 vccd1 vccd1 sky130_fd_sc_hd__fill_2
X_07898_ _07898_/A _07909_/Y vssd1 vssd1 vccd1 vccd1 _13778_/Z sky130_fd_sc_hd__ebufn_2
XANTENNA__09703__D line[13] vssd1 vssd1 vccd1 vccd1 sky130_fd_sc_hd__diode_2
X_09637_ _09655_/CLK line[111] vssd1 vssd1 vccd1 vccd1 _09638_/A sky130_fd_sc_hd__dfxtp_1
XFILLER_16_718 vssd1 vssd1 vccd1 vccd1 sky130_fd_sc_hd__decap_12
X_06849_ _06855_/CLK line[102] vssd1 vssd1 vccd1 vccd1 _06850_/A sky130_fd_sc_hd__dfxtp_1
XANTENNA__13225__D line[73] vssd1 vssd1 vccd1 vccd1 sky130_fd_sc_hd__diode_2
XANTENNA__08319__D line[6] vssd1 vssd1 vccd1 vccd1 sky130_fd_sc_hd__diode_2
XFILLER_55_397 vssd1 vssd1 vccd1 vccd1 sky130_fd_sc_hd__fill_2
X_09568_ _09568_/A _09589_/Y vssd1 vssd1 vccd1 vccd1 _13768_/Z sky130_fd_sc_hd__ebufn_2
XPHY_702 vssd1 vccd1 sky130_fd_sc_hd__tapvpwrvgnd_1